Header
  Mesh DB "." "mesh2"
End

Simulation
  Coordinate System = Cartesian 2D
  Simulation Type = Steady State
  Steady State Max Iterations = 1
  Output Intervals = 1
  Output File = "case.result"
End

Body 1
  Equation = 1
  Material = 1
End

Material 1
  Heat Conductivity = 1.0
  Density = 1.0
  Heat Capacity = 1.0
End

Equation 1
  Active Solvers(2) = 1 2
End

Solver 1
  Equation = Heat Equation
  Procedure = "HeatSolve" "HeatSolver"
  Variable = Temperature
  Linear System Solver = Direct
  Steady State Convergence Tolerance = 1e-08
End

Solver 2
  Exec Solver = After Simulation
  Equation = "result output"
  Procedure = "ResultOutputSolve" "ResultOutputSolver"
  Output File Name = "case"
  Output Format = "vtu"
  Vtu Format = Logical True
  Binary Output = Logical False
  Ascii Output = Logical True
  Single Precision = False
End

Boundary Condition 1
  Target Boundaries(1) = 4
  Temperature = 0.0
End

Boundary Condition 2
  Target Boundaries(1) = 2
  Temperature = 100.0
End
